<?xml version="1.0" encoding="UTF-8"?>

<!-- generated on 07/09/20 21:11:40 by Eclipse SUMO netedit Version 1.3.1
<configuration xmlns:xsi="http://www.w3.org/2001/XMLSchema-instance" xsi:noNamespaceSchemaLocation="http://sumo.dlr.de/xsd/netconvertConfiguration.xsd">

    <input>
        <sumo-net-file value="london-seg4.100.net.xml"/>
    </input>

    <output>
        <output-file value="london-seg4.100.net.xml"/>
        <plain-output-prefix value="D:\Python\NSF_SIM\maps\grid_speed_dist\100\test\london-seg4.100"/>
    </output>

    <processing>
        <geometry.max-grade.fix value="false"/>
        <offset.disable-normalization value="true"/>
        <opposites.guess.fix-lengths value="true"/>
        <lefthand value="false"/>
    </processing>

    <junctions>
        <no-turnarounds value="true"/>
        <junctions.corner-detail value="5"/>
        <junctions.limit-turn-speed value="5.5"/>
        <rectangular-lane-cut value="false"/>
    </junctions>

    <pedestrian>
        <walkingareas value="false"/>
    </pedestrian>

</configuration>
-->

<connections version="1.3" xmlns:xsi="http://www.w3.org/2001/XMLSchema-instance" xsi:noNamespaceSchemaLocation="http://sumo.dlr.de/xsd/connections_file.xsd">
    <connection from="road1" to="road4" fromLane="0" toLane="0"/>
    <connection from="road1" to="road5" fromLane="0" toLane="0"/>

    <connection from="road100" to="road103" fromLane="0" toLane="0"/>
    <connection from="road100" to="road104" fromLane="0" toLane="0"/>

    <connection from="road1000" to="road792" fromLane="0" toLane="0"/>
    <connection from="road1000" to="road791" fromLane="0" toLane="0"/>
    <connection from="road1000" to="road788" fromLane="0" toLane="0"/>
    <connection from="road1000" to="road790" fromLane="0" toLane="0"/>
    <connection from="road1000" to="road793" fromLane="0" toLane="0"/>

    <connection from="road1001" to="road1193" fromLane="0" toLane="0"/>
    <connection from="road1001" to="road1190" fromLane="0" toLane="0"/>
    <connection from="road1001" to="road1192" fromLane="0" toLane="0"/>
    <connection from="road1001" to="road1191" fromLane="0" toLane="0"/>

    <connection from="road1002" to="road998" fromLane="0" toLane="0"/>
    <connection from="road1002" to="road996" fromLane="0" toLane="0"/>
    <connection from="road1002" to="road997" fromLane="0" toLane="0"/>
    <connection from="road1002" to="road995" fromLane="0" toLane="0"/>

    <connection from="road1003" to="road798" fromLane="0" toLane="0"/>
    <connection from="road1003" to="road794" fromLane="0" toLane="0"/>
    <connection from="road1003" to="road796" fromLane="0" toLane="0"/>
    <connection from="road1003" to="road797" fromLane="0" toLane="0"/>

    <connection from="road1004" to="road1008" fromLane="0" toLane="0"/>
    <connection from="road1004" to="road1006" fromLane="0" toLane="0"/>
    <connection from="road1004" to="road1007" fromLane="0" toLane="0"/>

    <connection from="road1006" to="road794" fromLane="0" toLane="0"/>
    <connection from="road1006" to="road796" fromLane="0" toLane="0"/>
    <connection from="road1006" to="road797" fromLane="0" toLane="0"/>
    <connection from="road1006" to="road798" fromLane="0" toLane="0"/>

    <connection from="road1007" to="road1003" fromLane="0" toLane="0"/>
    <connection from="road1007" to="road1000" fromLane="0" toLane="0"/>
    <connection from="road1007" to="road1002" fromLane="0" toLane="0"/>
    <connection from="road1007" to="road1001" fromLane="0" toLane="0"/>
    <connection from="road1007" to="road1004" fromLane="0" toLane="0"/>

    <connection from="road1008" to="road1196" fromLane="0" toLane="0"/>
    <connection from="road1008" to="road1200" fromLane="0" toLane="0"/>
    <connection from="road1008" to="road1197" fromLane="0" toLane="0"/>
    <connection from="road1008" to="road1198" fromLane="0" toLane="0"/>
    <connection from="road1008" to="road1199" fromLane="0" toLane="0"/>
    <connection from="road1008" to="road1194" fromLane="0" toLane="0"/>

    <connection from="road101" to="road271" fromLane="0" toLane="0"/>
    <connection from="road101" to="road276" fromLane="0" toLane="0"/>
    <connection from="road101" to="road274" fromLane="0" toLane="0"/>
    <connection from="road101" to="road275" fromLane="0" toLane="0"/>
    <connection from="road101" to="road272" fromLane="0" toLane="0"/>

    <connection from="road1010" to="road800" fromLane="0" toLane="0"/>

    <connection from="road1011" to="road1194" fromLane="0" toLane="0"/>
    <connection from="road1011" to="road1196" fromLane="0" toLane="0"/>
    <connection from="road1011" to="road1200" fromLane="0" toLane="0"/>
    <connection from="road1011" to="road1197" fromLane="0" toLane="0"/>
    <connection from="road1011" to="road1198" fromLane="0" toLane="0"/>
    <connection from="road1011" to="road1199" fromLane="0" toLane="0"/>

    <connection from="road1012" to="road1014" fromLane="0" toLane="0"/>
    <connection from="road1012" to="road1017" fromLane="0" toLane="0"/>
    <connection from="road1012" to="road1016" fromLane="0" toLane="0"/>
    <connection from="road1012" to="road1015" fromLane="0" toLane="0"/>

    <connection from="road1014" to="road1206" fromLane="0" toLane="0"/>
    <connection from="road1014" to="road1205" fromLane="0" toLane="0"/>
    <connection from="road1014" to="road1207" fromLane="0" toLane="0"/>

    <connection from="road1015" to="road1010" fromLane="0" toLane="0"/>
    <connection from="road1015" to="road1011" fromLane="0" toLane="0"/>
    <connection from="road1015" to="road1012" fromLane="0" toLane="0"/>

    <connection from="road1016" to="road804" fromLane="0" toLane="0"/>
    <connection from="road1016" to="road803" fromLane="0" toLane="0"/>
    <connection from="road1016" to="road802" fromLane="0" toLane="0"/>

    <connection from="road1017" to="road1021" fromLane="0" toLane="0"/>
    <connection from="road1017" to="road1018" fromLane="0" toLane="0"/>
    <connection from="road1017" to="road1020" fromLane="0" toLane="0"/>

    <connection from="road1018" to="road809" fromLane="0" toLane="0"/>
    <connection from="road1018" to="road807" fromLane="0" toLane="0"/>
    <connection from="road1018" to="road805" fromLane="0" toLane="0"/>
    <connection from="road1018" to="road808" fromLane="0" toLane="0"/>

    <connection from="road1020" to="road1016" fromLane="0" toLane="0"/>
    <connection from="road1020" to="road1015" fromLane="0" toLane="0"/>
    <connection from="road1020" to="road1014" fromLane="0" toLane="0"/>
    <connection from="road1020" to="road1017" fromLane="0" toLane="0"/>

    <connection from="road1021" to="road1026" fromLane="0" toLane="0"/>
    <connection from="road1021" to="road1024" fromLane="0" toLane="0"/>
    <connection from="road1021" to="road1023" fromLane="0" toLane="0"/>
    <connection from="road1021" to="road1025" fromLane="0" toLane="0"/>
    <connection from="road1021" to="road1022" fromLane="0" toLane="0"/>

    <connection from="road1022" to="road1018" fromLane="0" toLane="0"/>
    <connection from="road1022" to="road1020" fromLane="0" toLane="0"/>
    <connection from="road1022" to="road1021" fromLane="0" toLane="0"/>

    <connection from="road1023" to="road812" fromLane="0" toLane="0"/>
    <connection from="road1023" to="road813" fromLane="0" toLane="0"/>
    <connection from="road1023" to="road810" fromLane="0" toLane="0"/>
    <connection from="road1023" to="road814" fromLane="0" toLane="0"/>

    <connection from="road1024" to="road1030" fromLane="0" toLane="0"/>
    <connection from="road1024" to="road1028" fromLane="0" toLane="0"/>
    <connection from="road1024" to="road1029" fromLane="0" toLane="0"/>

    <connection from="road1025" to="road807" fromLane="0" toLane="0"/>
    <connection from="road1025" to="road805" fromLane="0" toLane="0"/>
    <connection from="road1025" to="road808" fromLane="0" toLane="0"/>
    <connection from="road1025" to="road809" fromLane="0" toLane="0"/>

    <connection from="road1026" to="road1213" fromLane="0" toLane="0"/>
    <connection from="road1026" to="road1212" fromLane="0" toLane="0"/>
    <connection from="road1026" to="road1210" fromLane="0" toLane="0"/>

    <connection from="road1028" to="road1031" fromLane="0" toLane="0"/>
    <connection from="road1028" to="road1034" fromLane="0" toLane="0"/>
    <connection from="road1028" to="road1032" fromLane="0" toLane="0"/>

    <connection from="road1029" to="road1023" fromLane="0" toLane="0"/>
    <connection from="road1029" to="road1025" fromLane="0" toLane="0"/>
    <connection from="road1029" to="road1022" fromLane="0" toLane="0"/>
    <connection from="road1029" to="road1026" fromLane="0" toLane="0"/>
    <connection from="road1029" to="road1024" fromLane="0" toLane="0"/>

    <connection from="road103" to="road279" fromLane="0" toLane="0"/>
    <connection from="road103" to="road278" fromLane="0" toLane="0"/>

    <connection from="road1030" to="road1214" fromLane="0" toLane="0"/>

    <connection from="road1031" to="road1037" fromLane="0" toLane="0"/>
    <connection from="road1031" to="road1035" fromLane="0" toLane="0"/>

    <connection from="road1032" to="road1029" fromLane="0" toLane="0"/>
    <connection from="road1032" to="road1030" fromLane="0" toLane="0"/>
    <connection from="road1032" to="road1028" fromLane="0" toLane="0"/>

    <connection from="road1034" to="road821" fromLane="0" toLane="0"/>
    <connection from="road1034" to="road818" fromLane="0" toLane="0"/>
    <connection from="road1034" to="road820" fromLane="0" toLane="0"/>

    <connection from="road1035" to="road1034" fromLane="0" toLane="0"/>
    <connection from="road1035" to="road1032" fromLane="0" toLane="0"/>
    <connection from="road1035" to="road1031" fromLane="0" toLane="0"/>

    <connection from="road1037" to="road1041" fromLane="0" toLane="0"/>
    <connection from="road1037" to="road1039" fromLane="0" toLane="0"/>
    <connection from="road1037" to="road1040" fromLane="0" toLane="0"/>
    <connection from="road1037" to="road1042" fromLane="0" toLane="0"/>

    <connection from="road1039" to="road1043" fromLane="0" toLane="0"/>
    <connection from="road1039" to="road1044" fromLane="0" toLane="0"/>
    <connection from="road1039" to="road1045" fromLane="0" toLane="0"/>

    <connection from="road104" to="road101" fromLane="0" toLane="0"/>
    <connection from="road104" to="road100" fromLane="0" toLane="0"/>

    <connection from="road1040" to="road829" fromLane="0" toLane="0"/>
    <connection from="road1040" to="road826" fromLane="0" toLane="0"/>
    <connection from="road1040" to="road828" fromLane="0" toLane="0"/>

    <connection from="road1041" to="road1221" fromLane="0" toLane="0"/>
    <connection from="road1041" to="road1218" fromLane="0" toLane="0"/>
    <connection from="road1041" to="road1220" fromLane="0" toLane="0"/>

    <connection from="road1042" to="road1035" fromLane="0" toLane="0"/>
    <connection from="road1042" to="road1037" fromLane="0" toLane="0"/>

    <connection from="road1043" to="road834" fromLane="0" toLane="0"/>
    <connection from="road1043" to="road837" fromLane="0" toLane="0"/>
    <connection from="road1043" to="road833" fromLane="0" toLane="0"/>
    <connection from="road1043" to="road836" fromLane="0" toLane="0"/>
    <connection from="road1043" to="road835" fromLane="0" toLane="0"/>

    <connection from="road1044" to="road830" fromLane="0" toLane="0"/>
    <connection from="road1044" to="road831" fromLane="0" toLane="0"/>

    <connection from="road1045" to="road1040" fromLane="0" toLane="0"/>
    <connection from="road1045" to="road1042" fromLane="0" toLane="0"/>
    <connection from="road1045" to="road1041" fromLane="0" toLane="0"/>
    <connection from="road1045" to="road1039" fromLane="0" toLane="0"/>

    <connection from="road1047" to="road1054" fromLane="0" toLane="0"/>
    <connection from="road1047" to="road1052" fromLane="0" toLane="0"/>
    <connection from="road1047" to="road1053" fromLane="0" toLane="0"/>

    <connection from="road1048" to="road837" fromLane="0" toLane="0"/>
    <connection from="road1048" to="road833" fromLane="0" toLane="0"/>
    <connection from="road1048" to="road836" fromLane="0" toLane="0"/>
    <connection from="road1048" to="road835" fromLane="0" toLane="0"/>
    <connection from="road1048" to="road834" fromLane="0" toLane="0"/>

    <connection from="road105" to="road282" fromLane="0" toLane="0"/>
    <connection from="road105" to="road281" fromLane="0" toLane="0"/>

    <connection from="road1050" to="road1043" fromLane="0" toLane="0"/>
    <connection from="road1050" to="road1044" fromLane="0" toLane="0"/>
    <connection from="road1050" to="road1045" fromLane="0" toLane="0"/>

    <connection from="road1052" to="road843" fromLane="0" toLane="0"/>
    <connection from="road1052" to="road842" fromLane="0" toLane="0"/>
    <connection from="road1052" to="road841" fromLane="0" toLane="0"/>
    <connection from="road1052" to="road840" fromLane="0" toLane="0"/>
    <connection from="road1052" to="road838" fromLane="0" toLane="0"/>

    <connection from="road1053" to="road1048" fromLane="0" toLane="0"/>
    <connection from="road1053" to="road1050" fromLane="0" toLane="0"/>
    <connection from="road1053" to="road1047" fromLane="0" toLane="0"/>

    <connection from="road1054" to="road1057" fromLane="0" toLane="0"/>
    <connection from="road1054" to="road1058" fromLane="0" toLane="0"/>
    <connection from="road1054" to="road1056" fromLane="0" toLane="0"/>

    <connection from="road1056" to="road1052" fromLane="0" toLane="0"/>
    <connection from="road1056" to="road1053" fromLane="0" toLane="0"/>
    <connection from="road1056" to="road1054" fromLane="0" toLane="0"/>

    <connection from="road1057" to="road1062" fromLane="0" toLane="0"/>
    <connection from="road1057" to="road1063" fromLane="0" toLane="0"/>
    <connection from="road1057" to="road1061" fromLane="0" toLane="0"/>
    <connection from="road1057" to="road1060" fromLane="0" toLane="0"/>

    <connection from="road1058" to="road844" fromLane="0" toLane="0"/>
    <connection from="road1058" to="road846" fromLane="0" toLane="0"/>
    <connection from="road1058" to="road845" fromLane="0" toLane="0"/>

    <connection from="road1060" to="road1058" fromLane="0" toLane="0"/>
    <connection from="road1060" to="road1056" fromLane="0" toLane="0"/>
    <connection from="road1060" to="road1057" fromLane="0" toLane="0"/>

    <connection from="road1061" to="road849" fromLane="0" toLane="0"/>
    <connection from="road1061" to="road851" fromLane="0" toLane="0"/>
    <connection from="road1061" to="road852" fromLane="0" toLane="0"/>
    <connection from="road1061" to="road850" fromLane="0" toLane="0"/>

    <connection from="road1062" to="road1237" fromLane="0" toLane="0"/>

    <connection from="road1063" to="road1066" fromLane="0" toLane="0"/>
    <connection from="road1063" to="road1065" fromLane="0" toLane="0"/>

    <connection from="road1065" to="road1061" fromLane="0" toLane="0"/>
    <connection from="road1065" to="road1060" fromLane="0" toLane="0"/>
    <connection from="road1065" to="road1062" fromLane="0" toLane="0"/>
    <connection from="road1065" to="road1063" fromLane="0" toLane="0"/>

    <connection from="road1066" to="road857" fromLane="0" toLane="0"/>
    <connection from="road1066" to="road855" fromLane="0" toLane="0"/>
    <connection from="road1066" to="road856" fromLane="0" toLane="0"/>
    <connection from="road1066" to="road854" fromLane="0" toLane="0"/>

    <connection from="road1068" to="road859" fromLane="0" toLane="0"/>
    <connection from="road1068" to="road860" fromLane="0" toLane="0"/>
    <connection from="road1068" to="road861" fromLane="0" toLane="0"/>
    <connection from="road1068" to="road862" fromLane="0" toLane="0"/>

    <connection from="road1069" to="road1072" fromLane="0" toLane="0"/>
    <connection from="road1069" to="road1071" fromLane="0" toLane="0"/>

    <connection from="road107" to="road104" fromLane="0" toLane="0"/>
    <connection from="road107" to="road103" fromLane="0" toLane="0"/>

    <connection from="road1070" to="road1243" fromLane="0" toLane="0"/>
    <connection from="road1070" to="road1244" fromLane="0" toLane="0"/>
    <connection from="road1070" to="road1242" fromLane="0" toLane="0"/>

    <connection from="road1071" to="road1068" fromLane="0" toLane="0"/>
    <connection from="road1071" to="road1070" fromLane="0" toLane="0"/>
    <connection from="road1071" to="road1069" fromLane="0" toLane="0"/>

    <connection from="road1072" to="road1246" fromLane="0" toLane="0"/>
    <connection from="road1072" to="road1247" fromLane="0" toLane="0"/>
    <connection from="road1072" to="road1248" fromLane="0" toLane="0"/>

    <connection from="road1074" to="road871" fromLane="0" toLane="0"/>
    <connection from="road1074" to="road872" fromLane="0" toLane="0"/>

    <connection from="road1076" to="road1251" fromLane="0" toLane="0"/>
    <connection from="road1076" to="road1249" fromLane="0" toLane="0"/>

    <connection from="road1078" to="road1252" fromLane="0" toLane="0"/>
    <connection from="road1078" to="road1254" fromLane="0" toLane="0"/>

    <connection from="road1079" to="road875" fromLane="0" toLane="0"/>
    <connection from="road1079" to="road876" fromLane="0" toLane="0"/>
    <connection from="road1079" to="road874" fromLane="0" toLane="0"/>

    <connection from="road108" to="road110" fromLane="0" toLane="0"/>
    <connection from="road108" to="road109" fromLane="0" toLane="0"/>

    <connection from="road1080" to="road1074" fromLane="0" toLane="0"/>
    <connection from="road1080" to="road1076" fromLane="0" toLane="0"/>

    <connection from="road1082" to="road1086" fromLane="0" toLane="0"/>
    <connection from="road1082" to="road1087" fromLane="0" toLane="0"/>

    <connection from="road1083" to="road1256" fromLane="0" toLane="0"/>
    <connection from="road1083" to="road1257" fromLane="0" toLane="0"/>
    <connection from="road1083" to="road1258" fromLane="0" toLane="0"/>

    <connection from="road1084" to="road881" fromLane="0" toLane="0"/>
    <connection from="road1084" to="road880" fromLane="0" toLane="0"/>
    <connection from="road1084" to="road878" fromLane="0" toLane="0"/>
    <connection from="road1084" to="road879" fromLane="0" toLane="0"/>

    <connection from="road1086" to="road884" fromLane="0" toLane="0"/>
    <connection from="road1086" to="road883" fromLane="0" toLane="0"/>
    <connection from="road1086" to="road885" fromLane="0" toLane="0"/>

    <connection from="road1087" to="road1084" fromLane="0" toLane="0"/>
    <connection from="road1087" to="road1083" fromLane="0" toLane="0"/>
    <connection from="road1087" to="road1082" fromLane="0" toLane="0"/>

    <connection from="road1089" to="road1264" fromLane="0" toLane="0"/>
    <connection from="road1089" to="road1265" fromLane="0" toLane="0"/>
    <connection from="road1089" to="road1266" fromLane="0" toLane="0"/>

    <connection from="road109" to="road107" fromLane="0" toLane="0"/>
    <connection from="road109" to="road105" fromLane="0" toLane="0"/>
    <connection from="road109" to="road108" fromLane="0" toLane="0"/>

    <connection from="road1090" to="road1095" fromLane="0" toLane="0"/>
    <connection from="road1090" to="road1096" fromLane="0" toLane="0"/>
    <connection from="road1090" to="road1092" fromLane="0" toLane="0"/>
    <connection from="road1090" to="road1094" fromLane="0" toLane="0"/>

    <connection from="road1091" to="road888" fromLane="0" toLane="0"/>
    <connection from="road1091" to="road890" fromLane="0" toLane="0"/>
    <connection from="road1091" to="road886" fromLane="0" toLane="0"/>
    <connection from="road1091" to="road889" fromLane="0" toLane="0"/>

    <connection from="road1092" to="road892" fromLane="0" toLane="0"/>
    <connection from="road1092" to="road893" fromLane="0" toLane="0"/>
    <connection from="road1092" to="road894" fromLane="0" toLane="0"/>

    <connection from="road1094" to="road1091" fromLane="0" toLane="0"/>
    <connection from="road1094" to="road1089" fromLane="0" toLane="0"/>
    <connection from="road1094" to="road1090" fromLane="0" toLane="0"/>

    <connection from="road1095" to="road1269" fromLane="0" toLane="0"/>
    <connection from="road1095" to="road1270" fromLane="0" toLane="0"/>
    <connection from="road1095" to="road1271" fromLane="0" toLane="0"/>
    <connection from="road1095" to="road1268" fromLane="0" toLane="0"/>

    <connection from="road1096" to="road1099" fromLane="0" toLane="0"/>
    <connection from="road1096" to="road1100" fromLane="0" toLane="0"/>
    <connection from="road1096" to="road1101" fromLane="0" toLane="0"/>
    <connection from="road1096" to="road1098" fromLane="0" toLane="0"/>

    <connection from="road1098" to="road1092" fromLane="0" toLane="0"/>
    <connection from="road1098" to="road1094" fromLane="0" toLane="0"/>
    <connection from="road1098" to="road1095" fromLane="0" toLane="0"/>
    <connection from="road1098" to="road1096" fromLane="0" toLane="0"/>

    <connection from="road1099" to="road1272" fromLane="0" toLane="0"/>
    <connection from="road1099" to="road1275" fromLane="0" toLane="0"/>
    <connection from="road1099" to="road1274" fromLane="0" toLane="0"/>

    <connection from="road110" to="road112" fromLane="0" toLane="0"/>
    <connection from="road110" to="road114" fromLane="0" toLane="0"/>
    <connection from="road110" to="road113" fromLane="0" toLane="0"/>

    <connection from="road1100" to="road1105" fromLane="0" toLane="0"/>
    <connection from="road1100" to="road1102" fromLane="0" toLane="0"/>
    <connection from="road1100" to="road1104" fromLane="0" toLane="0"/>

    <connection from="road1101" to="road896" fromLane="0" toLane="0"/>
    <connection from="road1101" to="road895" fromLane="0" toLane="0"/>

    <connection from="road1102" to="road1277" fromLane="0" toLane="0"/>
    <connection from="road1102" to="road1280" fromLane="0" toLane="0"/>
    <connection from="road1102" to="road1278" fromLane="0" toLane="0"/>
    <connection from="road1102" to="road1279" fromLane="0" toLane="0"/>

    <connection from="road1104" to="road898" fromLane="0" toLane="0"/>
    <connection from="road1104" to="road899" fromLane="0" toLane="0"/>

    <connection from="road1105" to="road1274" fromLane="0" toLane="0"/>
    <connection from="road1105" to="road1272" fromLane="0" toLane="0"/>
    <connection from="road1105" to="road1275" fromLane="0" toLane="0"/>

    <connection from="road1106" to="road1281" fromLane="0" toLane="0"/>
    <connection from="road1106" to="road1283" fromLane="0" toLane="0"/>
    <connection from="road1106" to="road1284" fromLane="0" toLane="0"/>
    <connection from="road1106" to="road1285" fromLane="0" toLane="0"/>

    <connection from="road1107" to="road1111" fromLane="0" toLane="0"/>
    <connection from="road1107" to="road1109" fromLane="0" toLane="0"/>
    <connection from="road1107" to="road1112" fromLane="0" toLane="0"/>

    <connection from="road1109" to="road1117" fromLane="0" toLane="0"/>
    <connection from="road1109" to="road1116" fromLane="0" toLane="0"/>
    <connection from="road1109" to="road1115" fromLane="0" toLane="0"/>
    <connection from="road1109" to="road1114" fromLane="0" toLane="0"/>

    <connection from="road1111" to="road1288" fromLane="0" toLane="0"/>
    <connection from="road1111" to="road1290" fromLane="0" toLane="0"/>
    <connection from="road1111" to="road1287" fromLane="0" toLane="0"/>
    <connection from="road1111" to="road1289" fromLane="0" toLane="0"/>

    <connection from="road1112" to="road903" fromLane="0" toLane="0"/>
    <connection from="road1112" to="road902" fromLane="0" toLane="0"/>
    <connection from="road1112" to="road901" fromLane="0" toLane="0"/>

    <connection from="road1114" to="road1112" fromLane="0" toLane="0"/>
    <connection from="road1114" to="road1111" fromLane="0" toLane="0"/>
    <connection from="road1114" to="road1109" fromLane="0" toLane="0"/>

    <connection from="road1115" to="road909" fromLane="0" toLane="0"/>
    <connection from="road1115" to="road907" fromLane="0" toLane="0"/>
    <connection from="road1115" to="road905" fromLane="0" toLane="0"/>
    <connection from="road1115" to="road906" fromLane="0" toLane="0"/>
    <connection from="road1115" to="road908" fromLane="0" toLane="0"/>

    <connection from="road1116" to="road1297" fromLane="0" toLane="0"/>
    <connection from="road1116" to="road1296" fromLane="0" toLane="0"/>

    <connection from="road1117" to="road1291" fromLane="0" toLane="0"/>
    <connection from="road1117" to="road1293" fromLane="0" toLane="0"/>
    <connection from="road1117" to="road1294" fromLane="0" toLane="0"/>

    <connection from="road1119" to="road907" fromLane="0" toLane="0"/>
    <connection from="road1119" to="road905" fromLane="0" toLane="0"/>
    <connection from="road1119" to="road906" fromLane="0" toLane="0"/>
    <connection from="road1119" to="road908" fromLane="0" toLane="0"/>
    <connection from="road1119" to="road909" fromLane="0" toLane="0"/>

    <connection from="road112" to="road288" fromLane="0" toLane="0"/>
    <connection from="road112" to="road289" fromLane="0" toLane="0"/>
    <connection from="road112" to="road290" fromLane="0" toLane="0"/>

    <connection from="road1120" to="road1305" fromLane="0" toLane="0"/>
    <connection from="road1120" to="road1303" fromLane="0" toLane="0"/>
    <connection from="road1120" to="road1304" fromLane="0" toLane="0"/>

    <connection from="road1121" to="road914" fromLane="0" toLane="0"/>
    <connection from="road1121" to="road910" fromLane="0" toLane="0"/>
    <connection from="road1121" to="road913" fromLane="0" toLane="0"/>
    <connection from="road1121" to="road912" fromLane="0" toLane="0"/>

    <connection from="road1122" to="road918" fromLane="0" toLane="0"/>
    <connection from="road1122" to="road919" fromLane="0" toLane="0"/>
    <connection from="road1122" to="road920" fromLane="0" toLane="0"/>
    <connection from="road1122" to="road921" fromLane="0" toLane="0"/>
    <connection from="road1122" to="road916" fromLane="0" toLane="0"/>
    <connection from="road1122" to="road917" fromLane="0" toLane="0"/>

    <connection from="road1124" to="road1304" fromLane="0" toLane="0"/>
    <connection from="road1124" to="road1305" fromLane="0" toLane="0"/>
    <connection from="road1124" to="road1303" fromLane="0" toLane="0"/>

    <connection from="road1125" to="road1306" fromLane="0" toLane="0"/>
    <connection from="road1125" to="road1311" fromLane="0" toLane="0"/>
    <connection from="road1125" to="road1309" fromLane="0" toLane="0"/>
    <connection from="road1125" to="road1308" fromLane="0" toLane="0"/>
    <connection from="road1125" to="road1310" fromLane="0" toLane="0"/>

    <connection from="road1126" to="road919" fromLane="0" toLane="0"/>
    <connection from="road1126" to="road920" fromLane="0" toLane="0"/>
    <connection from="road1126" to="road921" fromLane="0" toLane="0"/>
    <connection from="road1126" to="road916" fromLane="0" toLane="0"/>
    <connection from="road1126" to="road917" fromLane="0" toLane="0"/>
    <connection from="road1126" to="road918" fromLane="0" toLane="0"/>

    <connection from="road1127" to="road1132" fromLane="0" toLane="0"/>
    <connection from="road1127" to="road1131" fromLane="0" toLane="0"/>
    <connection from="road1127" to="road1130" fromLane="0" toLane="0"/>
    <connection from="road1127" to="road1128" fromLane="0" toLane="0"/>

    <connection from="road1128" to="road1126" fromLane="0" toLane="0"/>
    <connection from="road1128" to="road1125" fromLane="0" toLane="0"/>
    <connection from="road1128" to="road1127" fromLane="0" toLane="0"/>

    <connection from="road113" to="road109" fromLane="0" toLane="0"/>
    <connection from="road113" to="road110" fromLane="0" toLane="0"/>

    <connection from="road1130" to="road924" fromLane="0" toLane="0"/>
    <connection from="road1130" to="road922" fromLane="0" toLane="0"/>
    <connection from="road1130" to="road923" fromLane="0" toLane="0"/>

    <connection from="road1131" to="road927" fromLane="0" toLane="0"/>
    <connection from="road1131" to="road928" fromLane="0" toLane="0"/>
    <connection from="road1131" to="road926" fromLane="0" toLane="0"/>
    <connection from="road1131" to="road929" fromLane="0" toLane="0"/>

    <connection from="road1132" to="road1315" fromLane="0" toLane="0"/>
    <connection from="road1132" to="road1314" fromLane="0" toLane="0"/>
    <connection from="road1132" to="road1313" fromLane="0" toLane="0"/>

    <connection from="road1134" to="road1318" fromLane="0" toLane="0"/>
    <connection from="road1134" to="road1319" fromLane="0" toLane="0"/>
    <connection from="road1134" to="road1317" fromLane="0" toLane="0"/>
    <connection from="road1134" to="road1320" fromLane="0" toLane="0"/>
    <connection from="road1134" to="road1321" fromLane="0" toLane="0"/>

    <connection from="road1135" to="road1138" fromLane="0" toLane="0"/>
    <connection from="road1135" to="road1137" fromLane="0" toLane="0"/>

    <connection from="road1137" to="road1134" fromLane="0" toLane="0"/>
    <connection from="road1137" to="road1135" fromLane="0" toLane="0"/>

    <connection from="road1138" to="road1142" fromLane="0" toLane="0"/>
    <connection from="road1138" to="road1141" fromLane="0" toLane="0"/>
    <connection from="road1138" to="road1139" fromLane="0" toLane="0"/>

    <connection from="road1139" to="road1137" fromLane="0" toLane="0"/>
    <connection from="road1139" to="road1138" fromLane="0" toLane="0"/>

    <connection from="road114" to="road118" fromLane="0" toLane="0"/>
    <connection from="road114" to="road116" fromLane="0" toLane="0"/>
    <connection from="road114" to="road117" fromLane="0" toLane="0"/>

    <connection from="road1141" to="road939" fromLane="0" toLane="0"/>
    <connection from="road1141" to="road940" fromLane="0" toLane="0"/>
